@<TRIPOS>MOLECULE
*****
 35 38 0 0 0
SMALL
GASTEIGER

@<TRIPOS>ATOM
      1 C          25.0498   26.0510    2.0288 C.ar    1  UNL1        0.0095
      2 C          24.0429   24.9916    1.6912 C.ar    1  UNL1       -0.0000
      3 C          22.5776   25.2736    1.8440 C.ar    1  UNL1        0.0175
      4 C          21.5707   24.2143    1.5064 C.ar    1  UNL1        0.0015
      5 C          20.1055   24.4964    1.6592 C.ar    1  UNL1       -0.0002
      6 C          19.6470   25.8378    2.1496 C.ar    1  UNL1        0.0015
      7 C          20.6539   26.8971    2.4872 C.ar    1  UNL1        0.0191
      8 C          22.1191   26.6150    2.3344 C.ar    1  UNL1        0.0826
      9 N          23.1261   27.6744    2.6719 N.ar    1  UNL1       -0.2315
     10 C          24.5913   27.3924    2.5191 C.ar    1  UNL1        0.1213
     11 N          25.5983   28.4517    2.8567 N.pl3   1  UNL1       -0.3429
     12 H          25.2974   29.3322    3.1786 H       1  UNL1        0.1437
     13 H          26.5600   28.2666    2.7564 H       1  UNL1        0.1437
     14 C          19.0985   23.4370    1.3216 C.ar    1  UNL1       -0.0040
     15 C          18.6689   22.4504    2.3666 C.ar    1  UNL1       -0.0003
     16 C          17.6620   21.3911    2.0291 C.ar    1  UNL1       -0.0000
     17 C          17.0847   21.3183    0.6465 C.ar    1  UNL1       -0.0003
     18 C          17.5143   22.3049   -0.3985 C.ar    1  UNL1       -0.0043
     19 C          18.5213   23.3642   -0.0609 C.ar    1  UNL1       -0.0218
     20 C          18.9509   24.3508   -1.1059 C.3     1  UNL1        0.0310
     21 C          26.5151   25.7689    1.8760 C.3     1  UNL1        0.0382
     22 C          27.2161   26.1155    0.5959 C.3     1  UNL1        0.0809
     23 C          28.1484   25.1274   -0.0400 C.3     1  UNL1        0.0099
     24 N          26.1103   27.5556   -1.2625 N.am    1  UNL1       -0.3058
     25 C          26.9847   27.4503   -0.0483 C.2     1  UNL1        0.2223
     26 O          27.6277   28.6797    0.5218 O.2     1  UNL1       -0.2751
     27 H          25.6883   26.7486   -1.6367 H       1  UNL1        0.1494
     28 O          25.4162   31.5598   -3.1950 O.3     1  UNL1       -0.3584
     29 C          26.6880   30.8097   -3.4595 C.3     1  UNL1        0.1436
     30 C          26.9194   29.4750   -2.8153 C.3     1  UNL1        0.0517
     31 C          25.8789   28.8903   -1.9067 C.3     1  UNL1        0.0764
     32 C          24.6071   29.6403   -1.6422 C.3     1  UNL1        0.0468
     33 C          24.3757   30.9751   -2.2864 C.3     1  UNL1        0.0945
     34 C          23.1011   30.8373   -1.5076 C.3     1  UNL1        0.0297
     35 C          23.7016   32.2619   -2.6601 C.3     1  UNL1        0.0297
@<TRIPOS>BOND
     1    28    29    1
     2    29    30    1
     3    30    31    1
     4    31    24    1
     5    24    25   am
     6    25    26    2
     7    25    22    1
     8    22    21    1
     9    21     1    1
    10     1     2   ar
    11     2     3   ar
    12     3     4   ar
    13     4     5   ar
    14     5     6   ar
    15     6     7   ar
    16     7     8   ar
    17     8     9   ar
    18     9    10   ar
    19    10    11    1
    20     5    14    1
    21    14    15   ar
    22    15    16   ar
    23    16    17   ar
    24    17    18   ar
    25    18    19   ar
    26    19    20    1
    27    22    23    1
    28    31    32    1
    29    32    33    1
    30    33    34    1
    31    33    35    1
    32    33    28    1
    33    10     1   ar
    34    19    14   ar
    35     8     3   ar
    36    24    27    1
    37    11    12    1
    38    11    13    1
@<TRIPOS>MOLECULE
*****
 35 38 0 0 0
SMALL
GASTEIGER

@<TRIPOS>ATOM
      1 C          22.4541   17.1839   -1.6037 C.ar    1  UNL1        0.0095
      2 C          22.1346   18.4937   -0.9463 C.ar    1  UNL1       -0.0000
      3 C          20.7665   19.0917   -1.0914 C.ar    1  UNL1        0.0175
      4 C          20.4470   20.4016   -0.4340 C.ar    1  UNL1        0.0015
      5 C          19.0790   20.9994   -0.5791 C.ar    1  UNL1       -0.0002
      6 C          18.0306   20.2875   -1.3815 C.ar    1  UNL1        0.0015
      7 C          18.3501   18.9777   -2.0388 C.ar    1  UNL1        0.0191
      8 C          19.7181   18.3798   -1.8938 C.ar    1  UNL1        0.0826
      9 N          20.0377   17.0699   -2.5512 N.ar    1  UNL1       -0.2315
     10 C          21.4056   16.4720   -2.4061 C.ar    1  UNL1        0.1213
     11 N          21.7252   15.1621   -3.0635 N.pl3   1  UNL1       -0.3429
     12 H          21.0371   14.6948   -3.5902 H       1  UNL1        0.1437
     13 H          22.6231   14.7696   -2.9683 H       1  UNL1        0.1437
     14 C          18.7594   22.3094    0.0783 C.ar    1  UNL1       -0.0040
     15 C          19.0188   23.5959   -0.6479 C.ar    1  UNL1       -0.0003
     16 C          18.6992   24.9058    0.0094 C.ar    1  UNL1       -0.0000
     17 C          18.1203   24.9291    1.3930 C.ar    1  UNL1       -0.0003
     18 C          17.8609   23.6425    2.1193 C.ar    1  UNL1       -0.0043
     19 C          18.1805   22.3326    1.4619 C.ar    1  UNL1       -0.0218
     20 C          17.9212   21.0461    2.1881 C.3     1  UNL1        0.0310
     21 C          23.8222   16.5859   -1.4587 C.3     1  UNL1        0.0382
     22 C          24.3590   16.2635   -0.0957 C.3     1  UNL1        0.0809
     23 C          25.6585   16.8592    0.3588 C.3     1  UNL1        0.0099
     24 N          23.4198   13.9020    0.4442 N.am    1  UNL1       -0.3058
     25 C          23.5965   15.3452    0.8129 C.2     1  UNL1        0.2223
     26 O          23.0106   15.8702    2.0900 O.2     1  UNL1       -0.2751
     27 H          23.8043   13.5575   -0.3941 H       1  UNL1        0.1494
     28 O          21.1321   11.1472    3.1695 O.3     1  UNL1       -0.3584
     29 C          20.3975   12.1389    2.3169 C.3     1  UNL1        0.1436
     30 C          21.1600   13.0572    1.4085 C.3     1  UNL1        0.0517
     31 C          22.6573   12.9838    1.3526 C.3     1  UNL1        0.0764
     32 C          23.3918   11.9921    2.2052 C.3     1  UNL1        0.0468
     33 C          22.6292   11.0738    3.1137 C.3     1  UNL1        0.0945
     34 C          24.0306   10.6277    3.4090 C.3     1  UNL1        0.0297
     35 C          22.3534   10.0006    4.1247 C.3     1  UNL1        0.0297
@<TRIPOS>BOND
     1    28    29    1
     2    29    30    1
     3    30    31    1
     4    31    24    1
     5    24    25   am
     6    25    26    2
     7    25    22    1
     8    22    21    1
     9    21     1    1
    10     1     2   ar
    11     2     3   ar
    12     3     4   ar
    13     4     5   ar
    14     5     6   ar
    15     6     7   ar
    16     7     8   ar
    17     8     9   ar
    18     9    10   ar
    19    10    11    1
    20     5    14    1
    21    14    15   ar
    22    15    16   ar
    23    16    17   ar
    24    17    18   ar
    25    18    19   ar
    26    19    20    1
    27    22    23    1
    28    31    32    1
    29    32    33    1
    30    33    34    1
    31    33    35    1
    32    33    28    1
    33    10     1   ar
    34    19    14   ar
    35     8     3   ar
    36    24    27    1
    37    11    12    1
    38    11    13    1
@<TRIPOS>MOLECULE
*****
 35 38 0 0 0
SMALL
GASTEIGER

@<TRIPOS>ATOM
      1 C          16.7756   16.8580   -3.9407 C.ar    1  UNL1        0.0095
      2 C          16.6586   18.2269   -3.3388 C.ar    1  UNL1       -0.0000
      3 C          17.7245   18.7325   -2.4123 C.ar    1  UNL1        0.0175
      4 C          17.6075   20.1014   -1.8104 C.ar    1  UNL1        0.0015
      5 C          18.6733   20.6070   -0.8840 C.ar    1  UNL1       -0.0002
      6 C          19.8562   19.7436   -0.5595 C.ar    1  UNL1        0.0015
      7 C          19.9733   18.3747   -1.1613 C.ar    1  UNL1        0.0191
      8 C          18.9074   17.8691   -2.0877 C.ar    1  UNL1        0.0826
      9 N          19.0244   16.5001   -2.6897 N.ar    1  UNL1       -0.2315
     10 C          17.9585   15.9946   -3.6161 C.ar    1  UNL1        0.1213
     11 N          18.0755   14.6256   -4.2180 N.pl3   1  UNL1       -0.3429
     12 H          18.8519   14.0589   -4.0050 H       1  UNL1        0.1437
     13 H          17.3759   14.2938   -4.8261 H       1  UNL1        0.1437
     14 C          18.5563   21.9760   -0.2821 C.ar    1  UNL1       -0.0040
     15 C          18.8753   23.1876   -1.1068 C.ar    1  UNL1       -0.0003
     16 C          18.7583   24.5566   -0.5050 C.ar    1  UNL1       -0.0000
     17 C          18.3224   24.7139    0.9217 C.ar    1  UNL1       -0.0003
     18 C          18.0034   23.5023    1.7464 C.ar    1  UNL1       -0.0043
     19 C          18.1204   22.1333    1.1445 C.ar    1  UNL1       -0.0218
     20 C          17.8015   20.9216    1.9692 C.3     1  UNL1        0.0310
     21 C          15.7097   16.3523   -4.8672 C.3     1  UNL1        0.0382
     22 C          15.7458   16.7168   -6.3218 C.3     1  UNL1        0.0809
     23 C          16.9548   16.3898   -7.1471 C.3     1  UNL1        0.0099
     24 N          14.2952   17.2326   -8.4146 N.am    1  UNL1       -0.3058
     25 C          14.5727   17.4083   -6.9510 C.2     1  UNL1        0.2223
     26 O          13.6772   18.2753   -6.1166 O.2     1  UNL1       -0.2751
     27 H          14.8830   16.6635   -8.9622 H       1  UNL1        0.1494
     28 O          10.7761   19.3069  -10.3023 O.3     1  UNL1       -0.3584
     29 C          12.1614   19.8452  -10.5054 C.3     1  UNL1        0.1436
     30 C          13.3344   19.1538   -9.8761 C.3     1  UNL1        0.0517
     31 C          13.1222   17.9240   -9.0438 C.3     1  UNL1        0.0764
     32 C          11.7369   17.3857   -8.8407 C.3     1  UNL1        0.0468
     33 C          10.5638   18.0772   -9.4700 C.3     1  UNL1        0.0945
     34 C           9.8592   16.9519   -8.7720 C.3     1  UNL1        0.0297
     35 C           9.1461   18.3777   -9.8568 C.3     1  UNL1        0.0297
@<TRIPOS>BOND
     1    28    29    1
     2    29    30    1
     3    30    31    1
     4    31    24    1
     5    24    25   am
     6    25    26    2
     7    25    22    1
     8    22    21    1
     9    21     1    1
    10     1     2   ar
    11     2     3   ar
    12     3     4   ar
    13     4     5   ar
    14     5     6   ar
    15     6     7   ar
    16     7     8   ar
    17     8     9   ar
    18     9    10   ar
    19    10    11    1
    20     5    14    1
    21    14    15   ar
    22    15    16   ar
    23    16    17   ar
    24    17    18   ar
    25    18    19   ar
    26    19    20    1
    27    22    23    1
    28    31    32    1
    29    32    33    1
    30    33    34    1
    31    33    35    1
    32    33    28    1
    33    10     1   ar
    34    19    14   ar
    35     8     3   ar
    36    24    27    1
    37    11    12    1
    38    11    13    1
@<TRIPOS>MOLECULE
*****
 35 38 0 0 0
SMALL
GASTEIGER

@<TRIPOS>ATOM
      1 C          24.7093   19.9108   -1.0935 C.ar    1  UNL1        0.0095
      2 C          24.5780   21.1578   -0.2703 C.ar    1  UNL1       -0.0000
      3 C          25.3913   22.3711   -0.6118 C.ar    1  UNL1        0.0175
      4 C          25.2599   23.6181    0.2114 C.ar    1  UNL1        0.0015
      5 C          26.0733   24.8313   -0.1301 C.ar    1  UNL1       -0.0002
      6 C          27.0179   24.7975   -1.2948 C.ar    1  UNL1        0.0015
      7 C          27.1493   23.5505   -2.1180 C.ar    1  UNL1        0.0191
      8 C          26.3360   22.3373   -1.7765 C.ar    1  UNL1        0.0826
      9 N          26.4673   21.0902   -2.5997 N.ar    1  UNL1       -0.2315
     10 C          25.6540   19.8770   -2.2582 C.ar    1  UNL1        0.1213
     11 N          25.7853   18.6299   -3.0814 N.pl3   1  UNL1       -0.3429
     12 H          26.4053   18.6077   -3.8458 H       1  UNL1        0.1437
     13 H          25.2515   17.8336   -2.8573 H       1  UNL1        0.1437
     14 C          25.9419   26.0784    0.6931 C.ar    1  UNL1       -0.0040
     15 C          26.8440   26.2977    1.8714 C.ar    1  UNL1       -0.0003
     16 C          26.7127   27.5447    2.6945 C.ar    1  UNL1       -0.0000
     17 C          25.6793   28.5724    2.3395 C.ar    1  UNL1       -0.0003
     18 C          24.7773   28.3531    1.1613 C.ar    1  UNL1       -0.0043
     19 C          24.9086   27.1060    0.3381 C.ar    1  UNL1       -0.0218
     20 C          24.0065   26.8867   -0.8401 C.3     1  UNL1        0.0310
     21 C          23.8960   18.6975   -0.7521 C.3     1  UNL1        0.0382
     22 C          23.5333   18.4153    0.6758 C.3     1  UNL1        0.0809
     23 C          24.3253   17.4175    1.4677 C.3     1  UNL1        0.0099
     24 N          21.1913   19.5235    0.4832 N.am    1  UNL1       -0.3058
     25 C          22.3784   19.1309    1.3117 C.2     1  UNL1        0.2223
     26 O          22.4108   19.4538    2.7762 O.2     1  UNL1       -0.2751
     27 H          21.1700   19.3116   -0.4780 H       1  UNL1        0.1494
     28 O          17.7268   21.6702    2.3909 O.3     1  UNL1       -0.3584
     29 C          18.1501   20.3255    2.9035 C.3     1  UNL1        0.1436
     30 C          19.3049   19.6100    2.2677 C.3     1  UNL1        0.0517
     31 C          20.0365   20.2391    1.1191 C.3     1  UNL1        0.0764
     32 C          19.6132   21.5837    0.6065 C.3     1  UNL1        0.0468
     33 C          18.4583   22.2992    1.2424 C.3     1  UNL1        0.0945
     34 C          18.8341   23.2972    0.1875 C.3     1  UNL1        0.0297
     35 C          17.4340   23.3614    1.5119 C.3     1  UNL1        0.0297
@<TRIPOS>BOND
     1    28    29    1
     2    29    30    1
     3    30    31    1
     4    31    24    1
     5    24    25   am
     6    25    26    2
     7    25    22    1
     8    22    21    1
     9    21     1    1
    10     1     2   ar
    11     2     3   ar
    12     3     4   ar
    13     4     5   ar
    14     5     6   ar
    15     6     7   ar
    16     7     8   ar
    17     8     9   ar
    18     9    10   ar
    19    10    11    1
    20     5    14    1
    21    14    15   ar
    22    15    16   ar
    23    16    17   ar
    24    17    18   ar
    25    18    19   ar
    26    19    20    1
    27    22    23    1
    28    31    32    1
    29    32    33    1
    30    33    34    1
    31    33    35    1
    32    33    28    1
    33    10     1   ar
    34    19    14   ar
    35     8     3   ar
    36    24    27    1
    37    11    12    1
    38    11    13    1
@<TRIPOS>MOLECULE
*****
 35 38 0 0 0
SMALL
GASTEIGER

@<TRIPOS>ATOM
      1 C          24.1209   27.8864    1.4442 C.ar    1  UNL1        0.0095
      2 C          23.6505   28.6585    0.2473 C.ar    1  UNL1       -0.0000
      3 C          24.6231   29.0388   -0.8296 C.ar    1  UNL1        0.0175
      4 C          24.1527   29.8109   -2.0265 C.ar    1  UNL1        0.0015
      5 C          25.1252   30.1911   -3.1033 C.ar    1  UNL1       -0.0002
      6 C          26.5681   29.7991   -2.9833 C.ar    1  UNL1        0.0015
      7 C          27.0385   29.0270   -1.7864 C.ar    1  UNL1        0.0191
      8 C          26.0660   28.6469   -0.7096 C.ar    1  UNL1        0.0826
      9 N          26.5364   27.8747    0.4874 N.ar    1  UNL1       -0.2315
     10 C          25.5639   27.4945    1.5642 C.ar    1  UNL1        0.1213
     11 N          26.0342   26.7224    2.7612 N.pl3   1  UNL1       -0.3429
     12 H          26.9813   26.4652    2.8400 H       1  UNL1        0.1437
     13 H          25.3959   26.4729    3.4680 H       1  UNL1        0.1437
     14 C          24.6548   30.9632   -4.3002 C.ar    1  UNL1       -0.0040
     15 C          24.2555   30.2379   -5.5511 C.ar    1  UNL1       -0.0003
     16 C          23.7852   31.0100   -6.7480 C.ar    1  UNL1       -0.0000
     17 C          23.7140   32.5074   -6.6941 C.ar    1  UNL1       -0.0003
     18 C          24.1133   33.2326   -5.4433 C.ar    1  UNL1       -0.0043
     19 C          24.5837   32.4605   -4.2463 C.ar    1  UNL1       -0.0218
     20 C          24.9829   33.1858   -2.9955 C.3     1  UNL1        0.0310
     21 C          23.1484   27.5062    2.5211 C.3     1  UNL1        0.0382
     22 C          21.6800   27.4505    2.2200 C.3     1  UNL1        0.0809
     23 C          20.8319   28.6755    2.3934 C.3     1  UNL1        0.0099
     24 N          19.5669   26.0386    1.6802 N.am    1  UNL1       -0.3058
     25 C          21.0597   26.1698    1.7456 C.2     1  UNL1        0.2223
     26 O          21.9323   25.0203    1.3366 O.2     1  UNL1       -0.2751
     27 H          18.9942   26.7931    1.9486 H       1  UNL1        0.1494
     28 O          17.7060   22.1965    0.2570 O.3     1  UNL1       -0.3584
     29 C          17.7609   22.5050    1.7239 C.3     1  UNL1        0.1436
     30 C          18.3812   23.7856    2.1983 C.3     1  UNL1        0.0517
     31 C          18.9466   24.7579    1.2058 C.3     1  UNL1        0.0764
     32 C          18.8918   24.4495   -0.2612 C.3     1  UNL1        0.0468
     33 C          18.2714   23.1687   -0.7355 C.3     1  UNL1        0.0945
     34 C          18.6695   23.7685   -2.0516 C.3     1  UNL1        0.0297
     35 C          17.7894   22.0964   -1.6670 C.3     1  UNL1        0.0297
@<TRIPOS>BOND
     1    28    29    1
     2    29    30    1
     3    30    31    1
     4    31    24    1
     5    24    25   am
     6    25    26    2
     7    25    22    1
     8    22    21    1
     9    21     1    1
    10     1     2   ar
    11     2     3   ar
    12     3     4   ar
    13     4     5   ar
    14     5     6   ar
    15     6     7   ar
    16     7     8   ar
    17     8     9   ar
    18     9    10   ar
    19    10    11    1
    20     5    14    1
    21    14    15   ar
    22    15    16   ar
    23    16    17   ar
    24    17    18   ar
    25    18    19   ar
    26    19    20    1
    27    22    23    1
    28    31    32    1
    29    32    33    1
    30    33    34    1
    31    33    35    1
    32    33    28    1
    33    10     1   ar
    34    19    14   ar
    35     8     3   ar
    36    24    27    1
    37    11    12    1
    38    11    13    1
@<TRIPOS>MOLECULE
*****
 35 38 0 0 0
SMALL
GASTEIGER

@<TRIPOS>ATOM
      1 C          16.8832   16.7757   -4.3287 C.ar    1  UNL1        0.0095
      2 C          15.8824   17.5013   -5.1783 C.ar    1  UNL1       -0.0000
      3 C          15.1909   16.7845   -6.3000 C.ar    1  UNL1        0.0175
      4 C          14.1901   17.5102   -7.1496 C.ar    1  UNL1        0.0015
      5 C          13.4986   16.7934   -8.2712 C.ar    1  UNL1       -0.0002
      6 C          13.8079   15.3511   -8.5432 C.ar    1  UNL1        0.0015
      7 C          14.8086   14.6255   -7.6936 C.ar    1  UNL1        0.0191
      8 C          15.5001   15.3422   -6.5720 C.ar    1  UNL1        0.0826
      9 N          16.5010   14.6166   -5.7223 N.ar    1  UNL1       -0.2315
     10 C          17.1925   15.3333   -4.6007 C.ar    1  UNL1        0.1213
     11 N          18.1933   14.6077   -3.7510 N.pl3   1  UNL1       -0.3429
     12 H          18.3963   13.6611   -3.9295 H       1  UNL1        0.1437
     13 H          18.6472   15.0781   -3.0148 H       1  UNL1        0.1437
     14 C          12.4977   17.5190   -9.1209 C.ar    1  UNL1       -0.0040
     15 C          11.0555   17.5605   -8.7107 C.ar    1  UNL1       -0.0003
     16 C          10.0547   18.2860   -9.5603 C.ar    1  UNL1       -0.0000
     17 C          10.4961   18.9702  -10.8202 C.ar    1  UNL1       -0.0003
     18 C          11.9383   18.9287  -11.2304 C.ar    1  UNL1       -0.0043
     19 C          12.9391   18.2031  -10.3807 C.ar    1  UNL1       -0.0218
     20 C          14.3814   18.1617  -10.7909 C.3     1  UNL1        0.0310
     21 C          17.5748   17.4924   -3.2070 C.3     1  UNL1        0.0382
     22 C          18.6014   18.5436   -3.5087 C.3     1  UNL1        0.0809
     23 C          19.3897   18.4782   -4.7831 C.3     1  UNL1        0.0099
     24 N          17.7772   20.6939   -2.3056 N.am    1  UNL1       -0.3058
     25 C          18.8397   19.6603   -2.5359 C.2     1  UNL1        0.2223
     26 O          20.1403   19.7434   -1.7934 O.2     1  UNL1       -0.2751
     27 H          16.9236   20.6393   -2.7930 H       1  UNL1        0.1494
     28 O          18.4919   24.0439    0.6126 O.3     1  UNL1       -0.3584
     29 C          18.6874   24.2746   -0.8566 C.3     1  UNL1        0.1436
     30 C          18.4492   23.1579   -1.8293 C.3     1  UNL1        0.0517
     31 C          18.0155   21.8105   -1.3329 C.3     1  UNL1        0.0764
     32 C          17.8200   21.5798    0.1363 C.3     1  UNL1        0.0468
     33 C          18.0583   22.6966    1.1091 C.3     1  UNL1        0.0945
     34 C          17.6592   21.6054    2.0578 C.3     1  UNL1        0.0297
     35 C          18.1579   23.4342    2.4113 C.3     1  UNL1        0.0297
@<TRIPOS>BOND
     1    28    29    1
     2    29    30    1
     3    30    31    1
     4    31    24    1
     5    24    25   am
     6    25    26    2
     7    25    22    1
     8    22    21    1
     9    21     1    1
    10     1     2   ar
    11     2     3   ar
    12     3     4   ar
    13     4     5   ar
    14     5     6   ar
    15     6     7   ar
    16     7     8   ar
    17     8     9   ar
    18     9    10   ar
    19    10    11    1
    20     5    14    1
    21    14    15   ar
    22    15    16   ar
    23    16    17   ar
    24    17    18   ar
    25    18    19   ar
    26    19    20    1
    27    22    23    1
    28    31    32    1
    29    32    33    1
    30    33    34    1
    31    33    35    1
    32    33    28    1
    33    10     1   ar
    34    19    14   ar
    35     8     3   ar
    36    24    27    1
    37    11    12    1
    38    11    13    1
@<TRIPOS>MOLECULE
*****
 35 38 0 0 0
SMALL
GASTEIGER

@<TRIPOS>ATOM
      1 C          17.3106   16.6631   -2.7877 C.ar    1  UNL1        0.0095
      2 C          18.4507   16.1249   -1.9749 C.ar    1  UNL1       -0.0000
      3 C          18.4897   14.6708   -1.6084 C.ar    1  UNL1        0.0175
      4 C          19.6298   14.1326   -0.7957 C.ar    1  UNL1        0.0015
      5 C          19.6688   12.6786   -0.4292 C.ar    1  UNL1       -0.0002
      6 C          18.5678   11.7629   -0.8755 C.ar    1  UNL1        0.0015
      7 C          17.4278   12.3011   -1.6882 C.ar    1  UNL1        0.0191
      8 C          17.3887   13.7551   -2.0547 C.ar    1  UNL1        0.0826
      9 N          16.2486   14.2933   -2.8674 N.ar    1  UNL1       -0.2315
     10 C          16.2096   15.7473   -3.2339 C.ar    1  UNL1        0.1213
     11 N          15.0695   16.2856   -4.0467 N.pl3   1  UNL1       -0.3429
     12 H          14.3469   15.6846   -4.3396 H       1  UNL1        0.1437
     13 H          15.0439   17.2399   -4.2872 H       1  UNL1        0.1437
     14 C          20.8089   12.1403    0.3836 C.ar    1  UNL1       -0.0040
     15 C          22.1458   11.9138   -0.2577 C.ar    1  UNL1       -0.0003
     16 C          23.2859   11.3755    0.5550 C.ar    1  UNL1       -0.0000
     17 C          23.0890   11.0638    2.0091 C.ar    1  UNL1       -0.0003
     18 C          21.7521   11.2904    2.6503 C.ar    1  UNL1       -0.0043
     19 C          20.6120   11.8287    1.8375 C.ar    1  UNL1       -0.0218
     20 C          19.2750   12.0553    2.4788 C.3     1  UNL1        0.0310
     21 C          17.2715   18.1172   -3.1542 C.3     1  UNL1        0.0382
     22 C          18.5114   18.9534   -3.0382 C.3     1  UNL1        0.0809
     23 C          19.5294   18.9421   -4.1398 C.3     1  UNL1        0.0099
     24 N          17.6453   20.7107   -1.3318 N.am    1  UNL1       -0.3058
     25 C          18.7332   19.8010   -1.8206 C.2     1  UNL1        0.2223
     26 O          20.0428   19.7389   -1.0920 O.2     1  UNL1       -0.2751
     27 H          16.7858   20.7515   -1.8101 H       1  UNL1        0.1494
     28 O          18.3106   23.2535    2.3208 O.3     1  UNL1       -0.3584
     29 C          17.9109   21.8155    2.4707 C.3     1  UNL1        0.1436
     30 C          17.6892   20.9679    1.2532 C.3     1  UNL1        0.0517
     31 C          17.8671   21.5583   -0.1143 C.3     1  UNL1        0.0764
     32 C          18.2667   22.9963   -0.2641 C.3     1  UNL1        0.0468
     33 C          18.4885   23.8439    0.9535 C.3     1  UNL1        0.0945
     34 C          18.7784   24.8501   -0.1206 C.3     1  UNL1        0.0297
     35 C          18.8109   25.0409    1.7979 C.3     1  UNL1        0.0297
@<TRIPOS>BOND
     1    28    29    1
     2    29    30    1
     3    30    31    1
     4    31    24    1
     5    24    25   am
     6    25    26    2
     7    25    22    1
     8    22    21    1
     9    21     1    1
    10     1     2   ar
    11     2     3   ar
    12     3     4   ar
    13     4     5   ar
    14     5     6   ar
    15     6     7   ar
    16     7     8   ar
    17     8     9   ar
    18     9    10   ar
    19    10    11    1
    20     5    14    1
    21    14    15   ar
    22    15    16   ar
    23    16    17   ar
    24    17    18   ar
    25    18    19   ar
    26    19    20    1
    27    22    23    1
    28    31    32    1
    29    32    33    1
    30    33    34    1
    31    33    35    1
    32    33    28    1
    33    10     1   ar
    34    19    14   ar
    35     8     3   ar
    36    24    27    1
    37    11    12    1
    38    11    13    1
@<TRIPOS>MOLECULE
*****
 35 38 0 0 0
SMALL
GASTEIGER

@<TRIPOS>ATOM
      1 C          18.5377   16.7037   -2.7666 C.ar    1  UNL1        0.0095
      2 C          18.0823   18.0524   -2.2938 C.ar    1  UNL1       -0.0000
      3 C          18.9760   18.8819   -1.4201 C.ar    1  UNL1        0.0175
      4 C          18.5206   20.2306   -0.9472 C.ar    1  UNL1        0.0015
      5 C          19.4143   21.0601   -0.0736 C.ar    1  UNL1       -0.0002
      6 C          20.7633   20.5409    0.3272 C.ar    1  UNL1        0.0015
      7 C          21.2186   19.1922   -0.1456 C.ar    1  UNL1        0.0191
      8 C          20.3250   18.3627   -1.0193 C.ar    1  UNL1        0.0826
      9 N          20.7803   17.0140   -1.4922 N.ar    1  UNL1       -0.2315
     10 C          19.8867   16.1845   -2.3658 C.ar    1  UNL1        0.1213
     11 N          20.3420   14.8357   -2.8387 N.pl3   1  UNL1       -0.3429
     12 H          21.2274   14.4949   -2.5756 H       1  UNL1        0.1437
     13 H          19.7554   14.2913   -3.4121 H       1  UNL1        0.1437
     14 C          18.9589   22.4089    0.3993 C.ar    1  UNL1       -0.0040
     15 C          19.2618   23.6311   -0.4159 C.ar    1  UNL1       -0.0003
     16 C          18.8066   24.9798    0.0569 C.ar    1  UNL1       -0.0000
     17 C          18.0483   25.1064    1.3450 C.ar    1  UNL1       -0.0003
     18 C          17.7454   23.8843    2.1602 C.ar    1  UNL1       -0.0043
     19 C          18.2008   22.5355    1.6873 C.ar    1  UNL1       -0.0218
     20 C          17.8978   21.3133    2.5025 C.3     1  UNL1        0.0310
     21 C          17.6440   15.8741   -3.6403 C.3     1  UNL1        0.0382
     22 C          17.5344   16.1786   -5.1050 C.3     1  UNL1        0.0809
     23 C          18.7550   16.5734   -5.8823 C.3     1  UNL1        0.0099
     24 N          16.0099   16.7247   -7.1367 N.am    1  UNL1       -0.3058
     25 C          16.2041   16.0884   -5.7923 C.2     1  UNL1        0.2223
     26 O          15.0682   15.3618   -5.1353 O.2     1  UNL1       -0.2751
     27 H          16.7554   17.2016   -7.5679 H       1  UNL1        0.1494
     28 O          12.0193   16.4540   -9.1987 O.3     1  UNL1       -0.3584
     29 C          13.0265   15.3552   -9.3668 C.3     1  UNL1        0.1436
     30 C          14.3566   15.4454   -8.6795 C.3     1  UNL1        0.0517
     31 C          14.6797   16.6345   -7.8240 C.3     1  UNL1        0.0764
     32 C          13.6725   17.7333   -7.6558 C.3     1  UNL1        0.0468
     33 C          12.3423   17.6430   -8.3432 C.3     1  UNL1        0.0945
     34 C          12.1842   18.9595   -7.6418 C.3     1  UNL1        0.0297
     35 C          10.9572   18.0100   -8.7869 C.3     1  UNL1        0.0297
@<TRIPOS>BOND
     1    28    29    1
     2    29    30    1
     3    30    31    1
     4    31    24    1
     5    24    25   am
     6    25    26    2
     7    25    22    1
     8    22    21    1
     9    21     1    1
    10     1     2   ar
    11     2     3   ar
    12     3     4   ar
    13     4     5   ar
    14     5     6   ar
    15     6     7   ar
    16     7     8   ar
    17     8     9   ar
    18     9    10   ar
    19    10    11    1
    20     5    14    1
    21    14    15   ar
    22    15    16   ar
    23    16    17   ar
    24    17    18   ar
    25    18    19   ar
    26    19    20    1
    27    22    23    1
    28    31    32    1
    29    32    33    1
    30    33    34    1
    31    33    35    1
    32    33    28    1
    33    10     1   ar
    34    19    14   ar
    35     8     3   ar
    36    24    27    1
    37    11    12    1
    38    11    13    1
@<TRIPOS>MOLECULE
*****
 35 38 0 0 0
SMALL
GASTEIGER

@<TRIPOS>ATOM
      1 C          22.2000   17.3506   -2.1023 C.ar    1  UNL1        0.0095
      2 C          21.9321   18.6251   -1.3582 C.ar    1  UNL1       -0.0000
      3 C          20.5654   19.2425   -1.3956 C.ar    1  UNL1        0.0175
      4 C          20.2975   20.5170   -0.6514 C.ar    1  UNL1        0.0015
      5 C          18.9310   21.1342   -0.6889 C.ar    1  UNL1       -0.0002
      6 C          17.8323   20.4770   -1.4706 C.ar    1  UNL1        0.0015
      7 C          18.1002   19.2025   -2.2148 C.ar    1  UNL1        0.0191
      8 C          19.4668   18.5853   -2.1773 C.ar    1  UNL1        0.0826
      9 N          19.7347   17.3107   -2.9215 N.ar    1  UNL1       -0.2315
     10 C          21.1013   16.6934   -2.8840 C.ar    1  UNL1        0.1213
     11 N          21.3693   15.4189   -3.6283 N.pl3   1  UNL1       -0.3429
     12 H          20.6482   14.9875   -4.1413 H       1  UNL1        0.1437
     13 H          22.2662   15.0137   -3.6036 H       1  UNL1        0.1437
     14 C          18.6630   22.4088    0.0553 C.ar    1  UNL1       -0.0040
     15 C          18.9154   23.7310   -0.6066 C.ar    1  UNL1       -0.0003
     16 C          18.6474   25.0055    0.1375 C.ar    1  UNL1       -0.0000
     17 C          18.1271   24.9579    1.5437 C.ar    1  UNL1       -0.0003
     18 C          17.8748   23.6357    2.2056 C.ar    1  UNL1       -0.0043
     19 C          18.1428   22.3611    1.4613 C.ar    1  UNL1       -0.0218
     20 C          17.8904   21.0389    2.1232 C.3     1  UNL1        0.0310
     21 C          23.5666   16.7333   -2.0649 C.3     1  UNL1        0.0382
     22 C          24.5789   17.2126   -1.0672 C.3     1  UNL1        0.0809
     23 C          24.8070   16.4419    0.1993 C.3     1  UNL1        0.0099
     24 N          24.6724   19.7940   -1.3458 N.am    1  UNL1       -0.3058
     25 C          25.3633   18.4627   -1.3360 C.2     1  UNL1        0.2223
     26 O          26.8385   18.3813   -1.5950 O.2     1  UNL1       -0.2751
     27 H          23.7041   19.8474   -1.1758 H       1  UNL1        0.1494
     28 O          27.0252   23.5442   -2.1522 O.3     1  UNL1       -0.3584
     29 C          26.9323   22.4768   -3.2020 C.3     1  UNL1        0.1436
     30 C          26.1480   21.2267   -2.9332 C.3     1  UNL1        0.0517
     31 C          25.4566   21.0440   -1.6146 C.3     1  UNL1        0.0764
     32 C          25.5496   22.1114   -0.5648 C.3     1  UNL1        0.0468
     33 C          26.3339   23.3615   -0.8337 C.3     1  UNL1        0.0945
     34 C          25.8575   23.6475    0.5597 C.3     1  UNL1        0.0297
     35 C          26.9527   24.7109   -0.6185 C.3     1  UNL1        0.0297
@<TRIPOS>BOND
     1    28    29    1
     2    29    30    1
     3    30    31    1
     4    31    24    1
     5    24    25   am
     6    25    26    2
     7    25    22    1
     8    22    21    1
     9    21     1    1
    10     1     2   ar
    11     2     3   ar
    12     3     4   ar
    13     4     5   ar
    14     5     6   ar
    15     6     7   ar
    16     7     8   ar
    17     8     9   ar
    18     9    10   ar
    19    10    11    1
    20     5    14    1
    21    14    15   ar
    22    15    16   ar
    23    16    17   ar
    24    17    18   ar
    25    18    19   ar
    26    19    20    1
    27    22    23    1
    28    31    32    1
    29    32    33    1
    30    33    34    1
    31    33    35    1
    32    33    28    1
    33    10     1   ar
    34    19    14   ar
    35     8     3   ar
    36    24    27    1
    37    11    12    1
    38    11    13    1
